8
Generated by mlmgen-v0.1.1.dev19+gdad8d7d.d20240813
H        1.8881922    0.0434471    6.4036416
H        2.3614382    1.5848368    4.1324938
B        2.9665417    3.1071877    6.8367337
B        1.2903809   -0.0355866    5.2252287
O        2.8188111    2.2115904    7.6804091
O        2.9569763    3.4427774    5.6277026
I        0.1039807   -1.5020698    4.4901998
Os       2.3947779    1.4743942    5.6803414
