9
Generated by mlmgen-v0.1.1.dev19+gdad8d7d.d20240813
H       -0.2081992    1.3400991   -3.0621630
H       -2.4303910   -0.9503595   -2.7899898
H        0.6051651   -1.3567848   -1.5425471
B       -1.8409890    0.7620352    0.7180068
B       -1.1803953    1.5595076   -0.6302030
B       -0.6847973    0.9357320   -2.0370676
B       -1.6293148    2.2061086    0.6713730
Pd      -0.9496627   -1.0546984   -2.0437979
Rn      -2.1809928   -1.5627333    0.7892544
